118
Coordinates from ORCA-job DPP-HD
  C   -2.56762000000000      2.04393000000000     -0.58621000000000
  N   -1.61365000000000      2.92833000000000     -0.05143000000000
  C   -2.18699000000000      0.78875000000000     -0.35015000000000
  C   -0.97354000000000      0.76215000000000      0.39802000000000
  C   -0.57250000000000      2.18447000000000      0.58198000000000
  O   0.37761000000000      2.60708000000000      1.21032000000000
  C   -2.65040000000000     -0.57550000000000     -0.56755000000000
  N   -1.73490000000000     -1.35209000000000      0.18460000000000
  C   -0.67821000000000     -0.52430000000000      0.65764000000000
  O   -3.61100000000000     -0.88630000000000     -1.24294000000000
  C   -1.65295000000000      4.41588000000000      0.07644000000000
  C   -3.04221000000000      4.99689000000000     -0.21553000000000
  C   -3.47419000000000      6.39316000000000      0.23794000000000
  H   -3.74389000000000      4.32975000000000      0.29033000000000
  H   -3.21651000000000      4.95830000000000     -1.29498000000000
  C   -5.01414000000000      6.37903000000000      0.28922000000000
  H   -3.13371000000000      7.15089000000000     -0.47233000000000
  H   -3.06721000000000      6.63544000000000      1.22465000000000
  C   -5.69373000000000      7.71469000000000      0.01465000000000
  H   -5.32735000000000      5.99779000000000      1.26974000000000
  H   -5.39526000000000      5.66483000000000     -0.45345000000000
  C   -7.21195000000000      7.49890000000000     -0.01866000000000
  H   -5.35746000000000      8.10865000000000     -0.95180000000000
  H   -5.42616000000000      8.44557000000000      0.78498000000000
  C   -7.97297000000000      8.75749000000000     -0.38814000000000
  H   -7.55472000000000      7.14121000000000      0.95961000000000
  H   -7.45957000000000      6.71604000000000     -0.74705000000000
  H   -7.78152000000000      9.55838000000000      0.33135000000000
  H   -9.04891000000000      8.55363000000000     -0.39518000000000
  H   -7.68963000000000      9.10712000000000     -1.38569000000000
  C   -0.49658000000000      5.05946000000000     -0.73615000000000
  H   -1.43860000000000      4.61083000000000      1.13625000000000
  C   -0.38799000000000      6.57968000000000     -0.57589000000000
  H   -0.60739000000000      4.81208000000000     -1.79957000000000
  H   0.45287000000000      4.60911000000000     -0.42197000000000
  C   0.99203000000000      7.14020000000000     -0.94037000000000
  H   -0.61279000000000      6.86226000000000      0.45920000000000
  H   -1.13068000000000      7.05483000000000     -1.22454000000000
  C   0.97812000000000      8.67220000000000     -0.86231000000000
  H   1.27424000000000      6.82071000000000     -1.94998000000000
  H   1.74404000000000      6.74322000000000     -0.24763000000000
  C   2.33630000000000      9.29227000000000     -1.19963000000000
  H   0.67566000000000      8.98359000000000      0.14529000000000
  H   0.22379000000000      9.06203000000000     -1.55726000000000
  C   2.29157000000000     10.81689000000000     -1.04770000000000
  H   2.61777000000000      9.02668000000000     -2.22509000000000
  H   3.09943000000000      8.87800000000000     -0.53042000000000
  C   3.52963000000000     11.53962000000000     -1.58384000000000
  H   2.15744000000000     11.06933000000000      0.01168000000000
  H   1.41493000000000     11.21325000000000     -1.57548000000000
  C   4.84270000000000     11.03119000000000     -1.01181000000000
  H   3.55852000000000     11.45855000000000     -2.67670000000000
  H   3.43302000000000     12.60734000000000     -1.35123000000000
  H   5.07014000000000     10.02593000000000     -1.37979000000000
  H   4.81581000000000     11.00464000000000      0.08171000000000
  H   5.66447000000000     11.68714000000000     -1.31699000000000
  C   -1.96049000000000     -2.80365000000000      0.45589000000000
  C   -3.45281000000000     -3.18953000000000      0.23495000000000
  C   -4.00652000000000     -4.54741000000000      0.68636000000000
  H   -3.66679000000000     -3.12851000000000     -0.83901000000000
  H   -4.06164000000000     -2.42378000000000      0.73597000000000
  C   -5.53604000000000     -4.51018000000000      0.47582000000000
  H   -3.77499000000000     -4.73102000000000      1.74036000000000
  H   -3.57421000000000     -5.35706000000000      0.09081000000000
  C   -6.27480000000000     -5.81482000000000      0.77448000000000
  H   -5.74749000000000     -4.22604000000000     -0.56395000000000
  H   -5.95594000000000     -3.71561000000000      1.10640000000000
  C   -7.78903000000000     -5.59588000000000      0.63434000000000
  H   -6.04219000000000     -6.15598000000000      1.78913000000000
  H   -5.94708000000000     -6.59521000000000      0.07786000000000
  C   -8.59422000000000     -6.85736000000000      0.89656000000000
  H   -8.02155000000000     -5.23079000000000     -0.37362000000000
  H   -8.11437000000000     -4.81860000000000      1.33666000000000
  H   -8.35269000000000     -7.63717000000000      0.16808000000000
  H   -9.66548000000000     -6.64177000000000      0.81662000000000
  H   -8.40286000000000     -7.24624000000000      1.90111000000000
  C   -1.00150000000000     -3.67093000000000     -0.37488000000000
  H   -1.76745000000000     -2.93509000000000      1.52524000000000
  C   -0.71273000000000     -5.05352000000000      0.23804000000000
  H   -0.05514000000000     -3.13384000000000     -0.50598000000000
  H   -1.39621000000000     -3.79914000000000     -1.39043000000000
  C   0.78382000000000     -5.35847000000000      0.15781000000000
  H   -1.27734000000000     -5.81877000000000     -0.30643000000000
  H   -1.02985000000000     -5.10097000000000      1.28643000000000
  C   1.15454000000000     -6.78450000000000      0.56567000000000
  H   1.31840000000000     -4.65377000000000      0.80537000000000
  H   1.13729000000000     -5.18164000000000     -0.86552000000000
  C   2.68053000000000     -6.90792000000000      0.60494000000000
  H   0.73316000000000     -7.49492000000000     -0.15510000000000
  H   0.73586000000000     -7.02540000000000      1.54979000000000
  C   3.16644000000000     -8.33930000000000      0.81916000000000
  H   3.06908000000000     -6.26795000000000      1.40750000000000
  H   3.09972000000000     -6.52763000000000     -0.33510000000000
  C   4.69652000000000     -8.37313000000000      0.85655000000000
  H   2.80123000000000     -8.97828000000000      0.00630000000000
  H   2.76108000000000     -8.73759000000000      1.75659000000000
  C   5.23360000000000     -9.78494000000000      1.01152000000000
  H   5.05947000000000     -7.75711000000000      1.68796000000000
  H   5.10054000000000     -7.93796000000000     -0.06547000000000
  H   4.87552000000000    -10.24226000000000      1.93881000000000
  H   6.32796000000000     -9.76954000000000      1.03991000000000
  H   4.92546000000000    -10.41554000000000      0.17177000000000
  C   -3.82249000000000      2.31729000000000     -1.18875000000000
  C   -4.12653000000000      2.84478000000000     -2.43285000000000
  S   -5.28311000000000      1.94969000000000     -0.32496000000000
  C   -6.26911000000000      2.55414000000000     -1.57687000000000
  C   -5.52910000000000      3.01079000000000     -2.64182000000000
  H   -5.97370000000000      3.43814000000000     -3.53180000000000
  H   -7.34526000000000      2.54194000000000     -1.47035000000000
  H   -3.37028000000000      3.13840000000000     -3.15066000000000
  C   0.55003000000000     -0.94741000000000      1.25703000000000
  C   0.86015000000000     -2.00967000000000      2.09561000000000
  C   2.24630000000000     -2.09858000000000      2.43778000000000
  C   2.98103000000000     -1.08654000000000      1.87476000000000
  S   2.02752000000000     -0.10616000000000      0.86734000000000
  H   0.13376000000000     -2.71911000000000      2.46433000000000
  H   4.03884000000000     -0.88743000000000      1.98494000000000
  H   2.67880000000000     -2.86038000000000      3.07466000000000
