24

C	-0.498788	-3.866725	0.593324
C	0.393517	-3.703963	-0.469446
C	0.685674	-2.357056	-0.817050
H	0.837128	-4.561092	-0.998381
C	-0.000000	-1.440664	-0.000000
S	-0.992768	-2.286957	1.183149
C	1.621254	-1.978743	-1.931676
H	2.035845	-2.878678	-2.425882
H	2.477868	-1.376015	-1.563980
H	1.110719	-1.375728	-2.711417
C	0.000000	0.000000	0.000000
C	0.149995	0.850475	1.099446
C	0.390327	2.213354	0.776721
H	0.085947	0.487279	2.136088
C	0.428665	2.430655	-0.612546
S	0.163670	0.928078	-1.486809
C	0.579235	3.284574	1.814609
H	0.505323	2.865404	2.836676
H	-0.185980	4.083890	1.726239
H	1.571698	3.773937	1.726228
H	0.593515	3.365448	-1.161575
H	-0.032646	-4.392713	1.433894
H	-1.407651	-4.392347	0.279954
H	0.827254	-1.440937	0.694299
