24

C	0.680396	-3.887800	0.248806
C	-0.621614	-3.701456	-0.225147
C	-1.019896	-2.345170	-0.370780
H	-1.285337	-4.545233	-0.466300
C	-0.000000	-1.450135	-0.000000
S	1.435271	-2.321334	0.522786
C	-2.378891	-1.934439	-0.865597
H	-3.003720	-2.819799	-1.092567
H	-2.313975	-1.326210	-1.791940
H	-2.924390	-1.325374	-0.114772
C	0.000000	0.000000	0.000000
C	0.285976	0.794723	1.113020
C	0.757308	2.103412	0.820578
H	0.154498	0.429575	2.142881
C	0.841565	2.336821	-0.563588
S	0.328498	0.913334	-1.464748
C	1.118059	3.105040	1.882380
H	0.966197	2.683616	2.894974
H	0.500773	4.024668	1.808137
H	2.180000	3.419766	1.808230
H	1.166129	3.238200	-1.097114
H	1.301772	-4.420219	-0.479986
H	0.687795	-4.419395	1.206964
H	0.369368	-1.450628	-1.014873
