24

C	0.363176	-3.887800	-0.626855
C	-0.329669	-3.701456	0.573074
C	-0.542250	-2.345170	0.940016
H	-0.682412	-4.545233	1.184837
C	0.000000	-1.450135	0.000000
S	0.764076	-2.321334	-1.322686
C	-1.265537	-1.934439	2.192440
H	-1.597559	-2.819799	2.768365
H	-2.166534	-1.326210	1.967653
H	-0.620843	-1.325374	2.860032
C	0.000000	0.000000	0.000000
C	0.419634	0.732990	1.113020
C	1.111057	1.939951	0.820578
H	0.226746	0.396221	2.142881
C	1.234565	2.155183	-0.563588
S	0.482106	0.842416	-1.464748
C	1.640257	2.863718	1.882380
H	1.417524	2.475067	2.894974
H	1.192042	3.876565	1.808137
H	2.740717	2.989259	1.808230
H	1.710720	2.986508	-1.097114
H	-0.246643	-4.420219	-1.365344
H	1.308062	-4.419395	-0.467758
H	0.935314	-1.449643	0.539988
