24

C	-0.466510	-3.887800	0.554267
C	0.424173	-3.701456	-0.507121
C	0.697244	-2.345170	-0.831575
H	0.877789	-4.545233	-1.048337
C	0.000000	-1.450135	0.000000
S	-0.982150	-2.321334	1.169911
C	1.627024	-1.934439	-1.939374
H	2.054010	-2.819799	-2.448894
H	2.475299	-1.326210	-1.561545
H	1.108051	-1.325374	-2.708773
C	0.000000	0.000000	0.000000
C	0.419634	0.732990	1.113020
C	1.111057	1.939951	0.820578
H	0.226746	0.396221	2.142881
C	1.234565	2.155183	-0.563588
S	0.482106	0.842416	-1.464748
C	1.640257	2.863718	1.882380
H	1.417524	2.475067	2.894974
H	1.192042	3.876565	1.808137
H	2.740717	2.989259	1.808230
H	1.710720	2.986508	-1.097114
H	0.005807	-4.420219	1.387431
H	-1.369415	-4.419395	0.233510
H	0.827337	-1.450628	0.694200
