24

C	-0.763475	-3.866725	0.133897
C	0.603206	-3.703963	-0.106669
C	1.050446	-2.357056	-0.185154
H	1.283024	-4.561092	-0.226709
C	0.000000	-1.440664	0.000000
S	-1.521018	-2.286957	0.268206
C	2.483610	-1.978743	-0.437628
H	3.118875	-2.878678	-0.549717
H	2.903464	-1.376015	0.394664
H	2.593726	-1.375728	-1.363110
C	0.000000	0.000000	0.000000
C	0.747916	0.431772	1.099446
C	1.946425	1.123709	0.776721
H	0.428523	0.247378	2.136088
C	2.137531	1.234018	-0.612546
S	0.816154	0.471179	-1.486809
C	2.888455	1.667564	1.814609
H	2.519842	1.454746	2.836676
H	3.008896	2.767543	1.726239
H	3.901271	1.221850	1.726228
H	2.959587	1.708609	-1.161575
H	-0.946698	-4.392713	1.077442
H	-1.258274	-4.392347	-0.690363
H	0.187427	-1.440937	1.063612
