24

C	-0.246754	-3.887800	-0.681143
C	0.227093	-3.701456	0.620906
C	0.371543	-2.345170	1.019618
H	0.468992	-4.545233	1.284357
C	0.000000	-1.450135	0.000000
S	-0.522097	-2.321334	-1.435522
C	0.866035	-1.934439	2.378731
H	1.093799	-2.819799	3.003272
H	0.114688	-1.326210	2.924444
H	1.791841	-1.325374	2.313987
C	0.000000	0.000000	0.000000
C	0.645024	0.545262	1.113020
C	1.707554	1.442954	0.820578
H	0.348587	0.294774	2.142881
C	1.897227	1.602964	-0.563588
S	0.741155	0.626722	-1.464748
C	2.520787	2.130014	1.882380
H	2.178559	1.840981	2.894974
H	2.446016	3.235078	1.808137
H	3.597818	1.871604	1.808230
H	2.628997	2.221299	-1.097114
H	-1.204454	-4.420219	-0.688686
H	0.482482	-4.419395	-1.302703
H	1.014863	-1.449643	-0.369395
