24

C	0.674034	-3.828925	0.724460
C	0.641731	-3.645403	-0.661131
C	0.406834	-2.309612	-1.085203
H	0.787861	-4.476429	-1.367305
C	0.251813	-1.428104	0.000000
S	0.402734	-2.286131	1.527517
C	0.335682	-1.905091	-2.531478
H	0.489007	-2.777074	-3.196254
H	1.109183	-1.151090	-2.787305
H	-0.648644	-1.460194	-2.787282
C	0.000000	0.000000	0.000000
C	0.540541	0.648986	1.113020
C	1.431046	1.717546	0.820578
H	0.292104	0.350827	2.142881
C	1.590053	1.908061	-0.563588
S	0.621066	0.745901	-1.464748
C	2.112618	2.535384	1.882380
H	1.825779	2.191315	2.894974
H	1.847090	3.610676	1.808137
H	3.218159	2.467925	1.808230
H	2.203332	2.644073	-1.097114
H	1.650218	-4.197430	1.059101
H	-0.117859	-4.508353	1.059122
H	1.315491	-1.241050	-0.000014
