24

C	-0.248806	-3.887800	0.680396
C	0.225147	-3.701456	-0.621614
C	0.370780	-2.345170	-1.019896
H	0.466300	-4.545233	-1.285337
C	0.000000	-1.450135	0.000000
S	-0.522786	-2.321334	1.435271
C	0.865597	-1.934439	-2.378891
H	1.092567	-2.819799	-3.003720
H	1.791940	-1.326210	-2.313975
H	0.114772	-1.325374	-2.924390
C	0.000000	0.000000	0.000000
C	0.143630	0.832309	1.113020
C	0.380550	2.202961	0.820578
H	0.077556	0.449877	2.142881
C	0.422995	2.447456	-0.563588
S	0.164909	0.956502	-1.464748
C	0.561888	3.252016	1.882380
H	0.485513	2.810624	2.894974
H	-0.205711	4.050482	1.808137
H	1.553045	3.746365	1.808230
H	0.586105	3.391501	-1.097114
H	0.479986	-4.420219	1.301772
H	-1.206964	-4.419395	0.687795
H	1.014873	-1.450628	0.369368
