24

C	-0.361285	-3.887800	-0.627947
C	0.331462	-3.701456	0.572038
C	0.542953	-2.345170	0.939610
H	0.684893	-4.545233	1.183405
C	0.000000	-1.450135	0.000000
S	-0.763441	-2.321334	-1.323052
C	1.265941	-1.934439	2.192207
H	1.598695	-2.819799	2.767709
H	0.620770	-1.326210	2.860100
H	2.166438	-1.325374	1.967682
C	0.000000	0.000000	0.000000
C	0.143630	0.832309	1.113020
C	0.380550	2.202961	0.820578
H	0.077556	0.449877	2.142881
C	0.422995	2.447456	-0.563588
S	0.164909	0.956502	-1.464748
C	0.561888	3.252016	1.882380
H	0.485513	2.810624	2.894974
H	-0.205711	4.050482	1.808137
H	1.553045	3.746365	1.808230
H	0.586105	3.391501	-1.097114
H	-1.305744	-4.420219	-0.469073
H	0.248940	-4.419395	-1.366694
H	0.935300	-1.449643	-0.540012
