24

C	-0.594240	-3.866725	0.497696
C	0.469057	-3.703963	-0.393981
C	0.817136	-2.357056	-0.685571
H	0.997777	-4.561092	-0.837848
C	-0.000000	-1.440664	-0.000000
S	-1.183137	-2.286957	0.992782
C	1.932056	-1.978743	-1.620802
H	2.426166	-2.878678	-2.035506
H	2.711806	-1.376015	-1.109943
H	1.564678	-1.375728	-2.477350
C	0.000000	0.000000	0.000000
C	0.365003	0.782674	1.099446
C	0.949885	2.036912	0.776721
H	0.209135	0.448431	2.136088
C	1.043159	2.236886	-0.612546
S	0.398297	0.854094	-1.486809
C	1.409609	3.022738	1.814609
H	1.229726	2.636980	2.836676
H	0.877346	3.992870	1.726239
H	2.494910	3.238558	1.726228
H	1.444334	3.097160	-1.161575
H	-0.281143	-4.392713	1.406441
H	-1.434879	-4.392347	0.031265
H	-0.694122	-1.440391	-0.827402
