24

C	0.246754	-3.887800	0.681143
C	-0.227093	-3.701456	-0.620906
C	-0.371543	-2.345170	-1.019618
H	-0.468992	-4.545233	-1.284357
C	-0.000000	-1.450135	-0.000000
S	0.522097	-2.321334	1.435522
C	-0.866035	-1.934439	-2.378731
H	-1.093799	-2.819799	-3.003272
H	-0.114688	-1.326210	-2.924444
H	-1.791841	-1.325374	-2.313987
C	0.000000	0.000000	0.000000
C	0.540541	0.648986	1.113020
C	1.431046	1.717546	0.820578
H	0.292104	0.350827	2.142881
C	1.590053	1.908061	-0.563588
S	0.621066	0.745901	-1.464748
C	2.112618	2.535384	1.882380
H	1.825779	2.191315	2.894974
H	1.847090	3.610676	1.808137
H	3.218159	2.467925	1.808230
H	2.203332	2.644073	-1.097114
H	1.204454	-4.420219	0.688686
H	-0.482482	-4.419395	1.302703
H	1.014863	-1.450628	-0.369395
