24

C	-0.555670	-3.887800	0.464838
C	0.505790	-3.701456	-0.425760
C	0.831053	-2.345170	-0.697866
H	1.046496	-4.545233	-0.879984
C	-0.000000	-1.450135	-0.000000
S	-1.170382	-2.321334	0.981588
C	1.939074	-1.934439	-1.627381
H	2.448051	-2.819799	-2.055015
H	2.708853	-1.326210	-1.107991
H	1.561590	-1.325374	-2.475210
C	0.000000	0.000000	0.000000
C	0.540541	0.648986	1.113020
C	1.431046	1.717546	0.820578
H	0.292104	0.350827	2.142881
C	1.590053	1.908061	-0.563588
S	0.621066	0.745901	-1.464748
C	2.112618	2.535384	1.882380
H	1.825779	2.191315	2.894974
H	1.847090	3.610676	1.808137
H	3.218159	2.467925	1.808230
H	2.203332	2.644073	-1.097114
H	-0.235206	-4.420219	1.367361
H	-1.389159	-4.419395	-0.007834
H	0.694221	-1.450628	0.827319
