24

C	0.728138	-3.866725	0.265779
C	-0.575726	-3.703963	-0.209225
C	-1.002290	-2.357056	-0.364875
H	-1.224486	-4.561092	-0.445176
C	-0.000000	-1.440664	-0.000000
S	1.451343	-2.286957	0.528236
C	-2.369683	-1.978743	-0.862808
H	-2.975883	-2.878678	-1.083368
H	-2.317142	-1.376015	-1.793522
H	-2.927787	-1.375728	-0.116375
C	0.000000	0.000000	0.000000
C	0.365003	0.782674	1.099446
C	0.949885	2.036912	0.776721
H	0.209135	0.448431	2.136088
C	1.043159	2.236886	-0.612546
S	0.398297	0.854094	-1.486809
C	1.409609	3.022738	1.814609
H	1.229726	2.636980	2.836676
H	0.877346	3.992870	1.726239
H	2.494910	3.238558	1.726228
H	1.444334	3.097160	-1.161575
H	1.358585	-4.392713	-0.459743
H	0.744515	-4.392347	1.227009
H	0.369490	-1.440937	-1.014829
