24

C	-0.133897	-3.866725	-0.763475
C	0.106669	-3.703963	0.603206
C	0.185154	-2.357056	1.050446
H	0.226709	-4.561092	1.283024
C	0.000000	-1.440664	0.000000
S	-0.268206	-2.286957	-1.521018
C	0.437628	-1.978743	2.483610
H	0.549717	-2.878678	3.118875
H	-0.394664	-1.376015	2.903464
H	1.363110	-1.375728	2.593726
C	0.000000	0.000000	0.000000
C	0.661577	0.555087	1.099446
C	1.721724	1.444630	0.776721
H	0.379056	0.318032	2.136088
C	1.890772	1.586449	-0.612546
S	0.721935	0.605744	-1.486809
C	2.555004	2.143805	1.814609
H	2.228946	1.870211	2.836676
H	2.482605	3.247987	1.726239
H	3.629830	1.880735	1.726228
H	2.617927	2.196579	-1.161575
H	-1.077442	-4.392713	-0.946698
H	0.690363	-4.392347	-1.258274
H	1.063612	-1.440391	-0.187427
