24

C	-0.264439	-3.866725	-0.728625
C	0.209794	-3.703963	0.575519
C	0.364749	-2.357056	1.002336
H	0.446060	-4.561092	1.224165
C	-0.000000	-1.440664	-0.000000
S	-0.528253	-2.286957	-1.451336
C	0.862253	-1.978743	2.369885
H	1.082953	-2.878678	2.976034
H	0.115513	-1.376015	2.927887
H	1.792797	-1.375728	2.317620
C	0.000000	0.000000	0.000000
C	0.555137	0.661535	1.099446
C	1.444710	1.721658	0.776721
H	0.318072	0.379023	2.136088
C	1.586563	1.890676	-0.612546
S	0.605781	0.721904	-1.486809
C	2.143920	2.554907	1.814609
H	1.870325	2.228851	2.836676
H	1.880882	3.629742	1.726239
H	3.248098	2.482476	1.726228
H	2.196723	2.617806	-1.161575
H	-1.225465	-4.392713	-0.745219
H	0.461378	-4.392347	-1.359038
H	1.014907	-1.440391	-0.369273
