24

C	-0.681143	-3.887800	0.246754
C	0.620906	-3.701456	-0.227093
C	1.019618	-2.345170	-0.371543
H	1.284357	-4.545233	-0.468992
C	0.000000	-1.450135	0.000000
S	-1.435522	-2.321334	0.522097
C	2.378731	-1.934439	-0.866035
H	3.003272	-2.819799	-1.093799
H	2.924444	-1.326210	-0.114688
H	2.313987	-1.325374	-1.791841
C	0.000000	0.000000	0.000000
C	0.143630	0.832309	1.113020
C	0.380550	2.202961	0.820578
H	0.077556	0.449877	2.142881
C	0.422995	2.447456	-0.563588
S	0.164909	0.956502	-1.464748
C	0.561888	3.252016	1.882380
H	0.485513	2.810624	2.894974
H	-0.205711	4.050482	1.808137
H	1.553045	3.746365	1.808230
H	0.586105	3.391501	-1.097114
H	-0.688686	-4.420219	1.204454
H	-1.302703	-4.419395	-0.482482
H	-0.369395	-1.449643	-1.014863
