24

C	0.713644	-3.887800	-0.124726
C	-0.650907	-3.701456	0.115824
C	-1.068646	-2.345170	0.188844
H	-1.346284	-4.545233	0.238841
C	0.000000	-1.450135	0.000000
S	1.504375	-2.321334	-0.264890
C	-2.492978	-1.934439	0.439816
H	-3.147582	-2.819799	0.555669
H	-2.899931	-1.326210	-0.394879
H	-2.589982	-1.325374	1.362799
C	0.000000	0.000000	0.000000
C	0.645024	0.545262	1.113020
C	1.707554	1.442954	0.820578
H	0.348587	0.294774	2.142881
C	1.897227	1.602964	-0.563588
S	0.741155	0.626722	-1.464748
C	2.520787	2.130014	1.882380
H	2.178559	1.840981	2.894974
H	2.446016	3.235078	1.808137
H	3.597818	1.871604	1.808230
H	2.628997	2.221299	-1.097114
H	0.887375	-4.420219	-1.066566
H	1.199130	-4.419395	0.701364
H	0.187554	-1.449643	1.063590
