24

C	-0.139145	-3.872011	0.792466
C	0.102109	-3.714320	-0.575568
C	0.180649	-2.367079	-1.020681
H	0.221685	-4.572499	-1.253706
C	-0.004575	-1.449826	0.029601
S	-0.272941	-2.289295	1.551299
C	0.433263	-1.986302	-2.453023
H	0.545494	-2.885200	-3.089557
H	1.358721	-1.383093	-2.562283
H	-0.398952	-1.383040	-2.872261
C	0.000000	0.000000	0.000000
C	-0.000422	0.867154	1.095548
C	-0.000723	2.251873	0.774773
H	-0.000313	0.500160	2.133116
C	-0.000589	2.471718	-0.614169
S	-0.000622	0.940512	-1.484255
C	-0.000952	3.337937	1.814623
H	-0.000937	2.910749	2.836150
H	-0.893476	3.992147	1.727003
H	0.891379	3.992426	1.727100
H	-0.000863	3.418660	-1.167140
H	0.684790	-4.397013	1.288672
H	-1.083135	-4.396976	0.976884
H	-1.068162	-1.449806	-0.157970
