24

C	-0.497696	-3.866725	-0.594240
C	0.393981	-3.703963	0.469057
C	0.685571	-2.357056	0.817136
H	0.837848	-4.561092	0.997777
C	0.000000	-1.440664	0.000000
S	-0.992782	-2.286957	-1.183137
C	1.620802	-1.978743	1.932056
H	2.035506	-2.878678	2.426166
H	1.109943	-1.376015	2.711806
H	2.477350	-1.375728	1.564678
C	0.000000	0.000000	0.000000
C	0.295399	0.811508	1.099446
C	0.768742	2.111949	0.776721
H	0.169256	0.464952	2.136088
C	0.844232	2.319291	-0.612546
S	0.322342	0.885558	-1.486809
C	1.140796	3.134091	1.814609
H	0.995218	2.734123	2.836676
H	0.526006	4.054142	1.726239
H	2.203157	3.443680	1.726228
H	1.168902	3.211257	-1.161575
H	-1.406441	-4.392713	-0.281143
H	-0.031265	-4.392347	-1.434879
H	0.827402	-1.440391	-0.694122
