24

C	0.124726	-3.887800	0.713644
C	-0.115824	-3.701456	-0.650907
C	-0.188844	-2.345170	-1.068646
H	-0.238841	-4.545233	-1.346284
C	0.000000	-1.450135	0.000000
S	0.264890	-2.321334	1.504375
C	-0.439816	-1.934439	-2.492978
H	-0.555669	-2.819799	-3.147582
H	0.394879	-1.326210	-2.899931
H	-1.362799	-1.325374	-2.589982
C	0.000000	0.000000	0.000000
C	0.645024	0.545262	1.113020
C	1.707554	1.442954	0.820578
H	0.348587	0.294774	2.142881
C	1.897227	1.602964	-0.563588
S	0.741155	0.626722	-1.464748
C	2.520787	2.130014	1.882380
H	2.178559	1.840981	2.894974
H	2.446016	3.235078	1.808137
H	3.597818	1.871604	1.808230
H	2.628997	2.221299	-1.097114
H	1.066566	-4.420219	0.887375
H	-0.701364	-4.419395	1.199130
H	1.063590	-1.450628	-0.187554
