24

C	-0.126876	-3.887800	0.713264
C	0.113784	-3.701456	-0.651267
C	0.188043	-2.345170	-1.068787
H	0.236019	-4.545233	-1.346782
C	-0.000000	-1.450135	-0.000000
S	-0.265612	-2.321334	1.504247
C	0.439357	-1.934439	-2.493059
H	0.554378	-2.819799	-3.147809
H	1.362899	-1.326210	-2.589987
H	-0.394786	-1.325374	-2.899892
C	0.000000	0.000000	0.000000
C	0.540541	0.648986	1.113020
C	1.431046	1.717546	0.820578
H	0.292104	0.350827	2.142881
C	1.590053	1.908061	-0.563588
S	0.621066	0.745901	-1.464748
C	2.112618	2.535384	1.882380
H	1.825779	2.191315	2.894974
H	1.847090	3.610676	1.808137
H	3.218159	2.467925	1.808230
H	2.203332	2.644073	-1.097114
H	0.698744	-4.420219	1.198647
H	-1.069193	-4.419395	0.886933
H	1.063595	-1.450628	0.187526
