24

C	-0.626855	-3.887800	-0.363176
C	0.573074	-3.701456	0.329669
C	0.940016	-2.345170	0.542250
H	1.184837	-4.545233	0.682412
C	-0.000000	-1.450135	-0.000000
S	-1.322686	-2.321334	-0.764076
C	2.192440	-1.934439	1.265537
H	2.768365	-2.819799	1.597559
H	1.967653	-1.326210	2.166534
H	2.860032	-1.325374	0.620843
C	0.000000	0.000000	0.000000
C	0.729909	0.424971	1.113020
C	1.932179	1.124518	0.820578
H	0.394478	0.229765	2.142881
C	2.146756	1.249161	-0.563588
S	0.838724	0.488500	-1.464748
C	2.852364	1.659924	1.882380
H	2.465145	1.434710	2.894974
H	2.970621	2.761183	1.808137
H	3.868160	1.218416	1.808230
H	2.974781	1.731032	-1.097114
H	-1.365344	-4.420219	0.246643
H	-0.467758	-4.419395	-1.308062
H	0.539988	-1.449643	-0.935314
