24

C	-3.684787	-1.436027	-0.000188
C	-3.759824	-0.039977	-0.000191
C	-2.506278	0.629331	-0.000375
H	-4.720382	0.496651	-0.000077
C	-1.424751	-0.270142	-0.000479
S	-1.996142	-1.933214	-0.000391
C	-2.372160	2.126803	-0.000421
H	-3.365861	2.615011	-0.000295
H	-1.821944	2.491507	-0.892902
H	-1.821700	2.491541	0.891895
C	0.000000	0.000000	0.000000
C	1.036945	-0.936443	0.000292
C	2.349226	-0.390310	0.000454
H	0.847234	-2.020529	0.000188
C	2.335515	1.015857	0.000342
S	0.681144	1.619759	0.000570
C	3.592802	-1.235497	0.000531
H	3.341070	-2.313754	0.000529
H	4.223499	-1.040534	0.892988
H	4.223590	-1.040556	-0.891867
H	3.177555	1.718313	0.000533
H	-4.145255	-1.863943	-0.897725
H	-4.145026	-1.863910	0.897482
H	-1.424616	-0.270124	1.079521
