24

C	0.248806	-3.887800	-0.680396
C	-0.225147	-3.701456	0.621614
C	-0.370780	-2.345170	1.019896
H	-0.466300	-4.545233	1.285337
C	0.000000	-1.450135	0.000000
S	0.522786	-2.321334	-1.435271
C	-0.865597	-1.934439	2.378891
H	-1.092567	-2.819799	3.003720
H	-1.791940	-1.326210	2.313975
H	-0.114772	-1.325374	2.924390
C	0.000000	0.000000	0.000000
C	0.645024	0.545262	1.113020
C	1.707554	1.442954	0.820578
H	0.348587	0.294774	2.142881
C	1.897227	1.602964	-0.563588
S	0.741155	0.626722	-1.464748
C	2.520787	2.130014	1.882380
H	2.178559	1.840981	2.894974
H	2.446016	3.235078	1.808137
H	3.597818	1.871604	1.808230
H	2.628997	2.221299	-1.097114
H	-0.479986	-4.420219	-1.301772
H	1.206964	-4.419395	-0.687795
H	1.014873	-1.449643	0.369368
