24

C	0.001092	-3.887800	-0.724460
C	0.001036	-3.701456	0.661131
C	0.000406	-2.345170	1.085203
H	0.001433	-4.545233	1.367305
C	-0.000000	-1.450135	-0.000000
S	0.000367	-2.321334	-1.527517
C	0.000233	-1.934439	2.531478
H	0.000656	-2.819799	3.196254
H	-0.892447	-1.326210	2.787305
H	0.892350	-1.325374	2.787282
C	0.000000	0.000000	0.000000
C	0.729909	0.424971	1.113020
C	1.932179	1.124518	0.820578
H	0.394478	0.229765	2.142881
C	2.146756	1.249161	-0.563588
S	0.838724	0.488500	-1.464748
C	2.852364	1.659924	1.882380
H	2.465145	1.434710	2.894974
H	2.970621	2.761183	1.808137
H	3.868160	1.218416	1.808230
H	2.974781	1.731032	-1.097114
H	-0.896272	-4.420219	-1.059101
H	0.898936	-4.419395	-1.059122
H	1.080000	-1.449643	-0.000014
