24

C	-0.135301	-3.866725	0.763228
C	0.106073	-3.703963	-0.603311
C	0.185286	-2.357056	-1.050423
H	0.225783	-4.561092	-1.283188
C	-0.000000	-1.440664	-0.000000
S	-0.268187	-2.286957	1.521021
C	0.438209	-1.978743	-2.483507
H	0.550153	-2.878678	-3.118798
H	1.363906	-1.376015	-2.593381
H	-0.393798	-1.375728	-2.903516
C	0.000000	0.000000	0.000000
C	0.747916	0.431772	1.099446
C	1.946425	1.123709	0.776721
H	0.428523	0.247378	2.136088
C	2.137531	1.234018	-0.612546
S	0.816154	0.471179	-1.486809
C	2.888455	1.667564	1.814609
H	2.519842	1.454746	2.836676
H	3.008896	2.767543	1.726239
H	3.901271	1.221850	1.726228
H	2.959587	1.708609	-1.161575
H	0.688674	-4.392713	1.258111
H	-1.079084	-4.392347	0.946272
H	1.063572	-1.440937	0.187654
