24

C	0.724460	-3.887800	0.001092
C	-0.661131	-3.701456	0.001036
C	-1.085203	-2.345170	0.000406
H	-1.367305	-4.545233	0.001433
C	0.000000	-1.450135	0.000000
S	1.527517	-2.321334	0.000367
C	-2.531478	-1.934439	0.000233
H	-3.196254	-2.819799	0.000656
H	-2.787305	-1.326210	-0.892447
H	-2.787282	-1.325374	0.892350
C	0.000000	0.000000	0.000000
C	0.419634	0.732990	1.113020
C	1.111057	1.939951	0.820578
H	0.226746	0.396221	2.142881
C	1.234565	2.155183	-0.563588
S	0.482106	0.842416	-1.464748
C	1.640257	2.863718	1.882380
H	1.417524	2.475067	2.894974
H	1.192042	3.876565	1.808137
H	2.740717	2.989259	1.808230
H	1.710720	2.986508	-1.097114
H	1.059101	-4.420219	-0.896272
H	1.059122	-4.419395	0.898936
H	-0.000014	-1.450628	-1.080000
