22

  C     -2.560610    0.427004   -0.037391
  C     -1.675525   -0.665875    0.006483
  N     -1.795544    1.588109   -0.062799
  C     -0.337021   -0.162132    0.007542
  C     -0.372108    1.294151   -0.037109
  C     -2.253394    2.957357   -0.109625
  H     -2.849555    3.164332   -1.025693
  H     -1.344016    3.589034   -0.117278
  H     -2.872043    3.218392    0.777301
  C     -1.637827   -2.126749    0.050191
  N     -0.209208   -2.419123    0.075698
  C      0.548984   -1.259054    0.051234
  O      0.474363    2.187892   -0.053201
  O     -2.484131   -3.011921    0.065988
  C      0.262313   -3.782769    0.123831
  H     -0.639172   -4.425898    0.131409
  H      0.859965   -3.982957    1.040525
  H      0.884266   -4.038091   -0.762516
  H     -3.273312    0.405975    0.831460
  H     -3.252256    0.353433   -0.920219
  H      1.240897   -1.181792    0.933960
  H      1.262674   -1.233179   -0.817096
