22

C	-0.728138	-3.866725	-0.265779
C	0.575726	-3.703963	0.209225
C	1.002290	-2.357056	0.364875
H	1.224486	-4.561092	0.445176
C	0.000000	-1.440664	0.000000
S	-1.451343	-2.286957	-0.528236
C	2.369683	-1.978743	0.862808
H	2.975883	-2.878678	1.083368
H	2.317142	-1.376015	1.793522
H	2.927787	-1.375728	0.116375
H	-1.291990	-4.783437	-0.471251
C	0.000000	0.000000	0.000000
C	0.747916	0.431772	1.099446
C	1.946425	1.123709	0.776721
H	0.428523	0.247378	2.136088
C	2.137531	1.234018	-0.612546
S	0.816154	0.471179	-1.486809
C	2.888455	1.667564	1.814609
H	2.519842	1.454746	2.836676
H	3.008896	2.767543	1.726239
H	3.901271	1.221850	1.726228
H	2.959587	1.708609	-1.161575
