22

C	-0.133897	-3.866725	-0.763475
C	0.106669	-3.703963	0.603206
C	0.185154	-2.357056	1.050446
H	0.226709	-4.561092	1.283024
C	-0.000000	-1.440664	-0.000000
S	-0.268206	-2.286957	-1.521018
C	0.437628	-1.978743	2.483610
H	0.549717	-2.878678	3.118875
H	-0.394664	-1.376015	2.903464
H	1.363110	-1.375728	2.593726
H	-0.237880	-4.783437	-1.354522
C	0.000000	0.000000	0.000000
C	0.555137	0.661535	1.099446
C	1.444710	1.721658	0.776721
H	0.318072	0.379023	2.136088
C	1.586563	1.890676	-0.612546
S	0.605781	0.721904	-1.486809
C	2.143920	2.554907	1.814609
H	1.870325	2.228851	2.836676
H	1.880882	3.629742	1.726239
H	3.248098	2.482476	1.726228
H	2.196723	2.617806	-1.161575
