22

C	-0.775127	-3.866725	-0.000713
C	0.612565	-3.703963	-0.000302
C	1.066639	-2.357056	0.000067
H	1.302900	-4.561092	-0.000470
C	0.000000	-1.440664	0.000000
S	-1.544483	-2.286957	0.000009
C	2.521872	-1.978743	0.000295
H	3.166949	-2.878678	0.000221
H	2.790821	-1.376015	0.892850
H	2.791023	-1.375728	-0.892005
H	-1.375251	-4.783437	-0.000945
C	0.000000	0.000000	0.000000
C	0.295399	0.811508	1.099446
C	0.768742	2.111949	0.776721
H	0.169256	0.464952	2.136088
C	0.844232	2.319291	-0.612546
S	0.322342	0.885558	-1.486809
C	1.140796	3.134091	1.814609
H	0.995218	2.734123	2.836676
H	0.526006	4.054142	1.726239
H	2.203157	3.443680	1.726228
H	1.168902	3.211257	-1.161575
