22

C	-0.775127	-3.866725	-0.000713
C	0.612565	-3.703963	-0.000302
C	1.066639	-2.357056	0.000067
H	1.302900	-4.561092	-0.000470
C	0.000000	-1.440664	0.000000
S	-1.544483	-2.286957	0.000009
C	2.521872	-1.978743	0.000295
H	3.166949	-2.878678	0.000221
H	2.790821	-1.376015	0.892850
H	2.791023	-1.375728	-0.892005
H	-1.375251	-4.783437	-0.000945
C	0.000000	0.000000	0.000000
C	0.000033	0.863600	1.099446
C	0.000052	2.247508	0.776721
H	0.000026	0.494801	2.136088
C	0.000074	2.468165	-0.612546
S	0.000024	0.942399	-1.486809
C	0.000075	3.335257	1.814609
H	0.000074	2.909620	2.836676
H	-0.892314	3.989552	1.726239
H	0.892483	3.989525	1.726228
H	0.000094	3.417382	-1.161575
