22

C	0.763228	-3.866725	0.135301
C	-0.603311	-3.703963	-0.106073
C	-1.050423	-2.357056	-0.185286
H	-1.283188	-4.561092	-0.225783
C	-0.000000	-1.440664	-0.000000
S	1.521021	-2.286957	0.268187
C	-2.483507	-1.978743	-0.438209
H	-3.118798	-2.878678	-0.550153
H	-2.593381	-1.376015	-1.363906
H	-2.903516	-1.375728	0.393798
H	1.354194	-4.783437	0.239740
C	0.000000	0.000000	0.000000
C	0.431829	0.747884	1.099446
C	1.123799	1.946373	0.776721
H	0.247423	0.428497	2.136088
C	1.234147	2.137457	-0.612546
S	0.471221	0.816130	-1.486809
C	1.667694	2.888380	1.814609
H	1.454874	2.519768	2.836676
H	1.222009	3.901210	1.726239
H	2.767675	3.008788	1.726228
H	1.708773	2.959493	-1.161575
