22

C	0.763228	-3.866725	0.135301
C	-0.603311	-3.703963	-0.106073
C	-1.050423	-2.357056	-0.185286
H	-1.283188	-4.561092	-0.225783
C	0.000000	-1.440664	0.000000
S	1.521021	-2.286957	0.268187
C	-2.483507	-1.978743	-0.438209
H	-3.118798	-2.878678	-0.550153
H	-2.593381	-1.376015	-1.363906
H	-2.903516	-1.375728	0.393798
H	1.354194	-4.783437	0.239740
C	0.000000	0.000000	0.000000
C	0.747916	0.431772	1.099446
C	1.946425	1.123709	0.776721
H	0.428523	0.247378	2.136088
C	2.137531	1.234018	-0.612546
S	0.816154	0.471179	-1.486809
C	2.888455	1.667564	1.814609
H	2.519842	1.454746	2.836676
H	3.008896	2.767543	1.726239
H	3.901271	1.221850	1.726228
H	2.959587	1.708609	-1.161575
