22

C	-0.497696	-3.866725	-0.594240
C	0.393981	-3.703963	0.469057
C	0.685571	-2.357056	0.817136
H	0.837848	-4.561092	0.997777
C	-0.000000	-1.440664	-0.000000
S	-0.992782	-2.286957	-1.183137
C	1.620802	-1.978743	1.932056
H	2.035506	-2.878678	2.426166
H	1.109943	-1.376015	2.711806
H	2.477350	-1.375728	1.564678
H	-0.883271	-4.783437	-1.054110
C	0.000000	0.000000	0.000000
C	0.555137	0.661535	1.099446
C	1.444710	1.721658	0.776721
H	0.318072	0.379023	2.136088
C	1.586563	1.890676	-0.612546
S	0.605781	0.721904	-1.486809
C	2.143920	2.554907	1.814609
H	1.870325	2.228851	2.836676
H	1.880882	3.629742	1.726239
H	3.248098	2.482476	1.726228
H	2.196723	2.617806	-1.161575
