15

C 0.0000 0.0000 0.0000
C 0.6616 0.5551 1.0994
C 1.7217 1.4446 0.7767
H 0.3791 0.3180 2.1361
C 1.8908 1.5864 -0.6125
S 0.7219 0.6057 -1.4868
C 2.5550 2.1438 1.8146
H 2.2289 1.8702 2.8367
H 2.4826 3.2480 1.7262
H 3.6298 1.8807 1.7262
C 0.2502 -1.4188 0.0000
H -0.8135 -1.6060 -0.0001
H 0.3724 -2.1119 -0.8192
H 0.3403 -1.9299 0.9471
H 2.6179 2.1966 -1.1616
