15

C 0.0000 0.0000 0.0000
C 0.3650 0.7827 1.0994
C 0.9499 2.0369 0.7767
H 0.2091 0.4484 2.1361
C 1.0432 2.2369 -0.6125
S 0.3983 0.8541 -1.4868
C 1.4096 3.0227 1.8146
H 1.2297 2.6370 2.8367
H 0.8773 3.9929 1.7262
H 2.4949 3.2386 1.7262
C -0.0000 -1.4407 -0.0000
H -0.1874 -1.4409 -1.0636
H -0.8068 -2.1445 0.1422
H 0.9327 -1.9596 -0.1645
H 1.4443 3.0972 -1.1616
