15

C 0.0000 0.0000 0.0000
C 0.2235 0.8342 1.0994
C 0.5817 2.1709 0.7767
H 0.1281 0.4779 2.1361
C 0.6389 2.3840 -0.6125
S 0.2439 0.9103 -1.4868
C 0.8633 3.2216 1.8146
H 0.7531 2.8105 2.8367
H 0.1707 4.0846 1.7262
H 1.8946 3.6226 1.7262
C 0.0000 -1.4407 0.0000
H 0.5401 -1.4404 -0.9352
H 0.7094 -2.1445 0.4096
H -0.8202 -1.9596 -0.4736
H 0.8846 3.3009 -1.1616
