15

C 0.0000 0.0000 0.0000
C 0.1500 0.8505 1.0994
C 0.3903 2.2134 0.7767
H 0.0859 0.4873 2.1361
C 0.4287 2.4307 -0.6125
S 0.1637 0.9281 -1.4868
C 0.5792 3.2846 1.8146
H 0.5053 2.8654 2.8367
H -0.1860 4.0839 1.7262
H 1.5717 3.7739 1.7262
C -0.0000 -1.4407 -0.0000
H 0.3693 -1.4409 1.0149
H 0.7698 -2.1445 -0.2801
H -0.8900 -1.9596 0.3239
H 0.5935 3.3654 -1.1616
