15

C 0.0000 0.0000 0.0000
C 0.2954 0.8115 1.0994
C 0.7687 2.1119 0.7767
H 0.1693 0.4650 2.1361
C 0.8442 2.3193 -0.6125
S 0.3223 0.8856 -1.4868
C 1.1408 3.1341 1.8146
H 0.9952 2.7341 2.8367
H 0.5260 4.0541 1.7262
H 2.2032 3.4437 1.7262
C 0.0000 -1.4407 0.0000
H -0.6941 -1.4409 -0.8274
H -0.6276 -2.1445 0.5265
H 0.7255 -1.9596 -0.6088
H 1.1689 3.2113 -1.1616
