15

C 0.0000 0.0000 0.0000
C -0.0750 1.3960 -0.0000
C 1.1785 2.0654 -0.0002
H -1.0356 1.9327 0.0001
C 2.2600 1.1659 -0.0003
S 1.6886 -0.4972 -0.0002
C 1.3126 3.5628 -0.0002
H 0.3189 4.0510 -0.0001
H 1.8628 3.9275 -0.8927
H 1.8631 3.9276 0.8921
C -1.0835 -0.9494 0.0002
H -1.0837 -0.9495 1.0802
H -1.0730 -2.0294 0.0003
H -2.0981 -0.5791 0.0003
H 3.3358 1.3785 -0.0004
