15

C 0.0000 0.0000 0.0000
C 0.7479 0.4318 1.0994
C 1.9464 1.1237 0.7767
H 0.4285 0.2474 2.1361
C 2.1375 1.2340 -0.6125
S 0.8162 0.4712 -1.4868
C 2.8885 1.6676 1.8146
H 2.5198 1.4547 2.8367
H 3.0089 2.7675 1.7262
H 3.9013 1.2218 1.7262
C 0.0000 -1.4407 0.0000
H -0.9352 -1.4404 -0.5401
H 0.4096 -2.1445 -0.7094
H -0.4736 -1.9596 0.8202
H 2.9596 1.7086 -1.1616
