116

H	-1.049520	0.262020	-0.008580
C	6.388500	0.353250	-0.014690
C	5.951920	1.650880	-0.068340
C	4.511970	1.781810	-0.073950
H	6.649050	2.478870	-0.102510
S	5.096310	-0.735170	0.030420
C	3.895860	0.521390	-0.022000
C	3.813890	3.130050	-0.129000
C	4.745970	4.347950	-0.194150
H	3.183660	3.231510	0.762700
H	3.167110	3.151270	-1.014260
C	3.972290	5.665680	-0.240120
H	5.384190	4.278060	-1.084100
H	5.407620	4.355860	0.681220
C	4.921290	6.853350	-0.312600
H	3.342960	5.761050	0.652090
H	3.308540	5.680670	-1.112050
H	5.584410	6.879480	0.558340
H	4.358090	7.791150	-0.338990
H	5.542250	6.804390	-1.213140
C	2.485160	0.124730	-0.006350
S	1.175140	1.232190	-0.038540
C	1.981040	-1.171580	0.036560
C	0.548020	-1.265590	0.040120
H	2.621520	-2.044420	0.064000
C	0.000000	0.000000	0.000000
C	-0.274380	-2.529380	0.078790
C	0.531840	-3.830110	0.136300
H	-0.918730	-2.546140	-0.809810
H	-0.937320	-2.480930	0.952500
C	-0.380000	-5.057590	0.159750
H	1.167380	-3.834040	1.030850
H	1.198410	-3.894020	-0.733000
C	0.425460	-6.346100	0.228670
H	-1.006380	-5.073190	-0.739670
H	-1.052270	-5.007330	1.023990
H	1.092060	-6.439460	-0.634720
H	-0.243570	-7.212260	0.236250
H	1.034560	-6.379730	1.137730
C	13.798490	0.353250	-0.014690
C	13.361910	1.650880	-0.068340
C	11.921960	1.781810	-0.073950
H	14.059040	2.478870	-0.102510
S	12.506300	-0.735170	0.030420
C	11.305850	0.521390	-0.022000
C	11.223880	3.130050	-0.129000
C	12.155960	4.347950	-0.194150
H	10.593650	3.231510	0.762700
H	10.577100	3.151270	-1.014260
C	11.382280	5.665680	-0.240120
H	12.794180	4.278060	-1.084100
H	12.817610	4.355860	0.681220
C	12.331280	6.853350	-0.312600
H	10.752950	5.761050	0.652090
H	10.718530	5.680670	-1.112050
H	12.994400	6.879480	0.558340
H	11.768080	7.791150	-0.338990
H	12.952240	6.804390	-1.213140
C	9.895150	0.124730	-0.006350
S	8.585130	1.232190	-0.038540
C	9.391030	-1.171580	0.036560
C	7.958010	-1.265590	0.040120
H	10.031510	-2.044420	0.064000
C	7.409990	0.000000	0.000000
C	7.135610	-2.529380	0.078790
C	7.941830	-3.830110	0.136300
H	6.491260	-2.546140	-0.809810
H	6.472670	-2.480930	0.952500
C	7.029990	-5.057590	0.159750
H	8.577370	-3.834040	1.030850
H	8.608400	-3.894020	-0.733000
C	7.835450	-6.346100	0.228670
H	6.403610	-5.073190	-0.739670
H	6.357720	-5.007330	1.023990
H	8.502050	-6.439460	-0.634720
H	7.166420	-7.212260	0.236250
H	8.444550	-6.379730	1.137730
C	21.208480	0.353250	-0.014690
C	20.771900	1.650880	-0.068340
C	19.331950	1.781810	-0.073950
H	21.469030	2.478870	-0.102510
S	19.916290	-0.735170	0.030420
C	18.715840	0.521390	-0.022000
C	18.633870	3.130050	-0.129000
C	19.565950	4.347950	-0.194150
H	18.003640	3.231510	0.762700
H	17.987090	3.151270	-1.014260
C	18.792270	5.665680	-0.240120
H	20.204170	4.278060	-1.084100
H	20.227600	4.355860	0.681220
C	19.741270	6.853350	-0.312600
H	18.162940	5.761050	0.652090
H	18.128520	5.680670	-1.112050
H	20.404390	6.879480	0.558340
H	19.178070	7.791150	-0.338990
H	20.362230	6.804390	-1.213140
C	17.305140	0.124730	-0.006350
S	15.995120	1.232190	-0.038540
C	16.801020	-1.171580	0.036560
C	15.368000	-1.265590	0.040120
H	17.441500	-2.044420	0.064000
C	14.819980	0.000000	0.000000
C	14.545600	-2.529380	0.078790
C	15.351820	-3.830110	0.136300
H	13.901250	-2.546140	-0.809810
H	13.882660	-2.480930	0.952500
C	14.439980	-5.057590	0.159750
H	15.987360	-3.834040	1.030850
H	16.018390	-3.894020	-0.733000
C	15.245440	-6.346100	0.228670
H	13.813600	-5.073190	-0.739670
H	13.767710	-5.007330	1.023990
H	15.912040	-6.439460	-0.634720
H	14.576410	-7.212260	0.236250
H	15.854540	-6.379730	1.137730
H	22.229970	0.000000	0.000000

